Version 4
SHEET 1 5144 1656
WIRE 1520 -1584 1456 -1584
WIRE 1760 -1584 1584 -1584
WIRE 1648 -1520 1568 -1520
WIRE 1760 -1520 1760 -1584
WIRE 1760 -1520 1728 -1520
WIRE 1648 -1392 1648 -1408
WIRE 1344 -1376 1312 -1376
WIRE 1456 -1376 1456 -1584
WIRE 1456 -1376 1424 -1376
WIRE 1504 -1376 1456 -1376
WIRE 1568 -1376 1568 -1520
WIRE 1616 -1376 1568 -1376
WIRE 1760 -1360 1760 -1520
WIRE 1760 -1360 1680 -1360
WIRE 1888 -1360 1760 -1360
WIRE 1456 -1344 1456 -1376
WIRE 1616 -1344 1600 -1344
WIRE 1600 -1312 1600 -1344
WIRE 2544 -1280 2496 -1280
WIRE 2688 -1280 2624 -1280
WIRE 608 -1264 608 -1280
WIRE 1456 -1248 1456 -1264
WIRE 1648 -1248 1648 -1328
WIRE 3232 -1216 2944 -1216
WIRE 2256 -1184 2176 -1184
WIRE 2384 -1184 2336 -1184
WIRE 608 -1168 608 -1184
WIRE 3040 -1152 3040 -1264
WIRE 2592 -1136 2592 -1152
WIRE 2944 -1136 2944 -1216
WIRE 3008 -1136 2944 -1136
WIRE 2384 -1120 2384 -1184
WIRE 2496 -1120 2496 -1280
WIRE 2496 -1120 2384 -1120
WIRE 2560 -1120 2496 -1120
WIRE 3120 -1120 3072 -1120
WIRE 3232 -1120 3232 -1216
WIRE 3232 -1120 3184 -1120
WIRE 3360 -1120 3232 -1120
WIRE 2688 -1104 2688 -1280
WIRE 2688 -1104 2624 -1104
WIRE 2816 -1104 2688 -1104
WIRE 2944 -1104 2880 -1104
WIRE 3008 -1104 2944 -1104
WIRE 3360 -1104 3360 -1120
WIRE 2256 -1088 2176 -1088
WIRE 2384 -1088 2384 -1120
WIRE 2384 -1088 2336 -1088
WIRE 2560 -1088 2528 -1088
WIRE 3232 -1088 3232 -1120
WIRE 2944 -1056 2944 -1104
WIRE 3040 -1056 3040 -1088
WIRE 2592 -1040 2592 -1072
WIRE 1520 -1024 1456 -1024
WIRE 1760 -1024 1584 -1024
WIRE 3232 -992 3232 -1024
WIRE 3360 -992 3360 -1024
WIRE 3504 -992 3360 -992
WIRE 3600 -992 3504 -992
WIRE 1648 -960 1568 -960
WIRE 1760 -960 1760 -1024
WIRE 1760 -960 1728 -960
WIRE 3360 -960 3360 -992
WIRE 3504 -960 3504 -992
WIRE 608 -944 608 -960
WIRE 2944 -944 2944 -976
WIRE 3504 -864 3504 -896
WIRE 608 -848 608 -864
WIRE 3360 -848 3360 -880
WIRE 1648 -832 1648 -848
WIRE 1344 -816 1312 -816
WIRE 1456 -816 1456 -1024
WIRE 1456 -816 1424 -816
WIRE 1504 -816 1456 -816
WIRE 1568 -816 1568 -960
WIRE 1616 -816 1568 -816
WIRE 1760 -800 1760 -960
WIRE 1760 -800 1680 -800
WIRE 1904 -800 1760 -800
WIRE 1456 -784 1456 -816
WIRE 1616 -784 1600 -784
WIRE 1600 -752 1600 -784
WIRE 1456 -688 1456 -704
WIRE 1648 -688 1648 -768
WIRE -496 -560 -1248 -560
WIRE -1024 -464 -1056 -464
WIRE -896 -464 -960 -464
WIRE -656 -352 -720 -352
WIRE -496 -352 -496 -560
WIRE -496 -352 -576 -352
WIRE 928 -320 880 -320
WIRE -960 -288 -960 -336
WIRE -1248 -272 -1248 -560
WIRE -1184 -272 -1248 -272
WIRE -1056 -272 -1056 -464
WIRE -1056 -272 -1104 -272
WIRE -992 -272 -1056 -272
WIRE -896 -256 -896 -464
WIRE -896 -256 -928 -256
WIRE -864 -256 -896 -256
WIRE -848 -256 -864 -256
WIRE -832 -256 -848 -256
WIRE -720 -256 -720 -352
WIRE -720 -256 -752 -256
WIRE -656 -256 -720 -256
WIRE -992 -240 -1008 -240
WIRE -496 -240 -496 -352
WIRE -496 -240 -592 -240
WIRE -480 -240 -496 -240
WIRE -464 -240 -480 -240
WIRE -656 -224 -672 -224
WIRE 240 -224 16 -224
WIRE 528 -208 304 -208
WIRE -1584 -192 -1584 -224
WIRE 240 -192 208 -192
WIRE -624 -176 -624 -208
WIRE -560 -176 -624 -176
WIRE -480 -176 -480 -240
WIRE 656 -144 656 -176
WIRE 784 -144 784 -176
WIRE 1024 -144 1024 -176
WIRE 880 -128 880 -320
WIRE 976 -128 880 -128
WIRE -1632 -112 -1664 -112
WIRE -1584 -112 -1632 -112
WIRE 208 -80 208 -192
WIRE 208 -80 192 -80
WIRE 240 -80 208 -80
WIRE 384 -80 304 -80
WIRE 3440 -80 3440 -112
WIRE 528 -64 528 -208
WIRE 592 -64 528 -64
WIRE 880 -64 880 -128
WIRE 880 -64 848 -64
WIRE -896 -48 -896 -256
WIRE -880 -48 -896 -48
WIRE -768 -48 -816 -48
WIRE -512 -48 -768 -48
WIRE -320 -32 -448 -32
WIRE 16 -32 16 -224
WIRE -512 -16 -576 -16
WIRE 1024 -16 1024 -48
WIRE 1152 -16 1024 -16
WIRE 1280 -16 1232 -16
WIRE 1472 -16 1280 -16
WIRE 3184 0 3088 0
WIRE 3328 0 3184 0
WIRE -480 16 -480 0
WIRE 1024 16 1024 -16
WIRE 592 32 528 32
WIRE 880 32 848 32
WIRE 3328 32 3296 32
WIRE 3440 32 3440 -16
WIRE 3440 32 3392 32
WIRE 3472 32 3440 32
WIRE 3840 32 3472 32
WIRE 4000 32 3904 32
WIRE 4224 32 4064 32
WIRE -768 48 -768 32
WIRE 208 64 192 64
WIRE 240 64 208 64
WIRE 336 64 304 64
WIRE 416 64 400 64
WIRE 3184 64 3184 0
WIRE 3472 80 3472 32
WIRE 3472 80 3280 80
WIRE 880 96 880 32
WIRE 976 96 880 96
WIRE 3296 128 3296 32
WIRE 3472 128 3296 128
WIRE 4816 128 4496 128
WIRE 1024 144 1024 112
WIRE 656 160 656 112
WIRE 784 160 784 112
WIRE 4288 160 4288 80
WIRE 4496 160 4496 128
WIRE 4496 160 4288 160
WIRE 208 176 208 64
WIRE 240 176 208 176
WIRE 3280 176 3280 80
WIRE 3328 176 3280 176
WIRE 368 192 304 192
WIRE 528 192 528 32
WIRE 528 192 432 192
WIRE 16 208 16 32
WIRE 240 208 16 208
WIRE 3184 208 3184 128
WIRE 3328 208 3184 208
WIRE 3440 208 3392 208
WIRE 3472 208 3472 128
WIRE 3472 208 3440 208
WIRE 4000 208 3472 208
WIRE 4224 208 4064 208
WIRE 880 224 880 96
WIRE 896 224 880 224
WIRE 4496 240 4496 160
WIRE 4528 240 4496 240
WIRE 4656 240 4608 240
WIRE 3440 256 3440 208
WIRE 4912 288 4864 288
WIRE 4864 320 4864 288
WIRE 3440 336 3440 320
WIRE 4656 336 4656 240
WIRE 4816 336 4816 128
WIRE 3440 432 3440 400
WIRE 3184 512 3088 512
WIRE 3328 512 3184 512
WIRE 4528 528 4496 528
WIRE 4656 528 4656 416
WIRE 4656 528 4608 528
WIRE 3328 544 3296 544
WIRE 3440 544 3440 496
WIRE 3440 544 3392 544
WIRE 3472 544 3440 544
WIRE 3840 544 3472 544
WIRE 4000 544 3904 544
WIRE 4224 544 4064 544
WIRE 3184 576 3184 512
WIRE 3472 592 3472 544
WIRE 3472 592 3280 592
WIRE 4288 608 4288 592
WIRE 4496 608 4496 528
WIRE 4496 608 4288 608
WIRE 3296 640 3296 544
WIRE 3472 640 3296 640
WIRE 4496 640 4496 608
WIRE 4816 640 4816 384
WIRE 4816 640 4496 640
WIRE 576 672 464 672
WIRE 752 672 640 672
WIRE 1312 672 1312 528
WIRE 4288 672 4288 608
WIRE 3280 688 3280 592
WIRE 3328 688 3280 688
WIRE 3184 720 3184 640
WIRE 3328 720 3184 720
WIRE 3440 720 3392 720
WIRE 3472 720 3472 640
WIRE 3472 720 3440 720
WIRE 4000 720 3472 720
WIRE 4224 720 4064 720
WIRE 752 768 752 672
WIRE 752 768 624 768
WIRE 784 768 752 768
WIRE 3440 768 3440 720
WIRE -576 784 -576 -16
WIRE 464 784 464 672
WIRE 464 784 -576 784
WIRE 560 784 464 784
WIRE 784 784 784 768
WIRE 800 784 784 784
WIRE 1312 784 1312 736
WIRE 1312 784 880 784
WIRE 688 800 624 800
WIRE 688 848 688 800
WIRE 1312 848 1312 784
WIRE 3440 848 3440 832
WIRE 1312 1056 1312 928
WIRE 4144 1120 4144 1088
WIRE 4144 1152 4144 1120
WIRE 4112 1168 3968 1168
WIRE 4224 1184 4224 1120
WIRE 4224 1184 4176 1184
WIRE 4240 1184 4224 1184
WIRE 3696 1200 3664 1200
WIRE 3824 1200 3776 1200
WIRE 4112 1200 4064 1200
WIRE 3408 1296 3312 1296
WIRE 3520 1296 3472 1296
WIRE 3552 1296 3520 1296
WIRE 3664 1296 3664 1200
WIRE 3664 1296 3632 1296
WIRE 3696 1296 3664 1296
WIRE 3824 1312 3824 1200
WIRE 3824 1312 3760 1312
WIRE 3968 1312 3968 1168
WIRE 3968 1312 3824 1312
WIRE 3696 1328 3648 1328
WIRE 3072 1392 3072 1344
WIRE 3696 1408 3648 1408
WIRE 3520 1472 3520 1296
WIRE 4112 1472 3520 1472
WIRE 4240 1488 4176 1488
WIRE 3072 1504 3072 1472
WIRE 4064 1504 4064 1200
WIRE 4112 1504 4064 1504
WIRE 4064 1584 4064 1504
WIRE 4064 1584 4000 1584
FLAG 1312 1056 0
FLAG 1312 528 Vout
IOPIN 1312 528 In
FLAG 688 928 0
FLAG 592 752 Vdd
IOPIN 592 752 In
FLAG 592 816 0
FLAG 128 -80 0
FLAG 128 64 0
FLAG 656 160 0
FLAG 784 160 0
FLAG 1280 48 0
FLAG 656 -176 Vdd
IOPIN 656 -176 BiDir
FLAG 784 -176 Vdd
IOPIN 784 -176 BiDir
FLAG 1024 144 0
FLAG 1024 -176 Vdd
IOPIN 1024 -176 BiDir
FLAG -1664 -112 Vcm
IOPIN -1664 -112 In
FLAG -1632 -112 Vbias
IOPIN -1632 -112 In
FLAG -1584 -32 Vdd
IOPIN -1584 -32 In
FLAG 16 -224 Vpwm
IOPIN 16 -224 BiDir
FLAG 928 -320 GateP
IOPIN 928 -320 BiDir
FLAG 896 224 GateN
IOPIN 896 224 BiDir
FLAG 416 64 GateP
IOPIN 416 64 BiDir
FLAG 384 -80 GateN
IOPIN 384 -80 BiDir
FLAG -1584 48 0
FLAG -1584 -224 0
FLAG -1008 -240 VCM
IOPIN -1008 -240 In
FLAG -672 -224 VCM
IOPIN -672 -224 In
FLAG -960 -224 0
FLAG -624 -272 0
FLAG -768 128 0
FLAG -960 -336 VDD
IOPIN -960 -336 In
FLAG -624 -176 VDD
IOPIN -624 -176 In
FLAG -480 -64 VDD
IOPIN -480 -64 In
FLAG -464 -240 VSQR
IOPIN -464 -240 Out
FLAG -320 -32 VPWM
IOPIN -320 -32 Out
FLAG -848 -256 Vramp
FLAG -864 -256 VRAMP
IOPIN -864 -256 Out
FLAG 1472 -16 Vout
IOPIN 1472 -16 Out
FLAG -480 16 0
FLAG 3072 1504 0
FLAG 3072 1344 Vin_a
IOPIN 3072 1344 Out
FLAG 3440 336 0
FLAG 3440 -112 0
FLAG 3088 0 VPWM_N
IOPIN 3088 0 In
FLAG 3440 848 0
FLAG 3440 400 0
FLAG 3088 512 VPWM_P
IOPIN 3088 512 In
FLAG 4000 1584 Vramp
IOPIN 4000 1584 In
FLAG 4144 1216 0
FLAG 4144 1520 0
FLAG 3696 1408 0
FLAG 4144 1376 0
FLAG 4064 1088 0
FLAG 3312 1296 Vin_a
IOPIN 3312 1296 In
FLAG 4240 1184 VPWM_P
IOPIN 4240 1184 Out
FLAG 4240 1488 VPWM_N
IOPIN 4240 1488 Out
FLAG 4864 400 0
FLAG 4912 288 Vaudio
FLAG 4368 -16 0
FLAG 4288 256 0
FLAG 4368 496 0
FLAG 4288 768 0
FLAG 1456 -1248 0
FLAG 1648 -1248 VSS
IOPIN 1648 -1248 In
FLAG 1648 -1408 VDD
IOPIN 1648 -1408 In
FLAG 1312 -1376 Vin_audio
IOPIN 1312 -1376 In
FLAG 608 -960 Vin_audio
IOPIN 608 -960 Out
FLAG 608 -848 0
FLAG 608 -1280 0
FLAG 608 -1168 VSS
IOPIN 608 -1168 Out
FLAG 1456 -688 0
FLAG 1648 -688 VSS
IOPIN 1648 -688 In
FLAG 1648 -848 VDD
IOPIN 1648 -848 In
FLAG 1312 -816 Vin_audio
IOPIN 1312 -816 In
FLAG 1600 -1312 VCM
IOPIN 1600 -1312 In
FLAG 1600 -752 VCM
IOPIN 1600 -752 In
FLAG 1904 -800 VBPF2
IOPIN 1904 -800 Out
FLAG 1888 -1360 VBPF1
IOPIN 1888 -1360 Out
FLAG 3040 -1056 0
FLAG 3040 -1264 VDD
IOPIN 3040 -1264 In
FLAG 3232 -992 0
FLAG 3360 -848 0
FLAG 3504 -864 0
FLAG 2944 -944 0
FLAG 2592 -1152 VDD
IOPIN 2592 -1152 In
FLAG 2592 -1040 0
FLAG 2528 -1088 VCM
IOPIN 2528 -1088 In
FLAG 2176 -1184 VBPF1
IOPIN 2176 -1184 In
FLAG 2176 -1088 VBPF2
IOPIN 2176 -1088 In
FLAG 3600 -992 Vref
IOPIN 3600 -992 Out
SYMBOL res 1296 832 R0
SYMATTR InstName R1
SYMATTR Value 5
SYMBOL res 896 768 R90
WINDOW 0 0 56 VBottom 2
WINDOW 3 32 56 VTop 2
SYMATTR InstName R2
SYMATTR Value 50k
SYMBOL cap 640 656 R90
WINDOW 0 0 32 VBottom 2
WINDOW 3 32 32 VTop 2
SYMATTR InstName C1
SYMATTR Value 25n
SYMBOL OpAmps\\UniversalOpAmp2 592 784 M0
SYMATTR InstName U1
SYMBOL voltage 688 832 R0
WINDOW 123 0 0 Left 0
WINDOW 39 0 0 Left 0
SYMATTR InstName Vref1
SYMATTR Value 250m
SYMBOL Contrib\\Wurth\\Optoelectronics\\SignalLED\\Mono-color\\WL-TMRW 1312 720 R0
SYMATTR InstName D1
SYMBOL cap 192 -96 R90
WINDOW 0 0 32 VBottom 2
WINDOW 3 32 32 VTop 2
SYMATTR InstName C2
SYMATTR Value {Ca}
SYMBOL cap 192 48 R90
WINDOW 0 0 32 VBottom 2
WINDOW 3 32 32 VTop 2
SYMATTR InstName C3
SYMATTR Value {Cb}
SYMBOL PowerProducts\\LTC1693-1 720 -16 R0
SYMATTR InstName U2
SYMBOL ind 1136 0 R270
WINDOW 0 32 56 VTop 2
WINDOW 3 5 56 VBottom 2
SYMATTR InstName L1
SYMATTR Value {L}
SYMBOL cap 1264 -16 R0
SYMATTR InstName C4
SYMATTR Value {Cn}
SYMBOL nmos 976 16 R0
SYMATTR InstName M1
SYMATTR Value Si7336ADP
SYMBOL pmos 976 -48 M180
SYMATTR InstName M2
SYMATTR Value AO6407
SYMBOL Digital\\inv 304 128 R180
WINDOW 0 8 32 Invisible 2
SYMATTR InstName A1
SYMATTR Value VHigh=5
SYMBOL Digital\\inv 400 128 R180
WINDOW 0 8 32 Invisible 2
SYMATTR InstName A2
SYMATTR Value VHigh=5
SYMBOL Digital\\inv 304 -16 R180
WINDOW 0 8 32 Invisible 2
SYMATTR InstName A3
SYMATTR Value VHigh=5
SYMBOL Digital\\inv 368 128 R0
WINDOW 0 8 32 Invisible 2
SYMATTR InstName A4
SYMATTR Value VHigh=5
SYMBOL Digital\\inv 80 -32 R90
WINDOW 0 8 32 Invisible 2
WINDOW 3 60 51 VRight 2
SYMATTR InstName A5
SYMATTR Value VHigh=5
SYMBOL voltage -1584 -48 R0
SYMATTR InstName V1
SYMATTR Value 5
SYMBOL res -1600 -128 R0
SYMATTR InstName R3
SYMATTR Value 1k
SYMBOL res -1600 -208 R0
SYMATTR InstName R4
SYMATTR Value 1k
SYMBOL res -1088 -288 R90
WINDOW 0 0 56 VBottom 2
WINDOW 3 32 56 VTop 2
SYMATTR InstName R5
SYMATTR Value {R1}
SYMBOL cap -960 -480 R90
WINDOW 0 0 32 VBottom 2
WINDOW 3 32 32 VTop 2
SYMATTR InstName C5
SYMATTR Value {C1}
SYMBOL cap -816 -64 R90
WINDOW 0 0 32 VBottom 2
WINDOW 3 32 32 VTop 2
SYMATTR InstName C6
SYMATTR Value {CBIAS}
SYMBOL res -784 -64 R0
SYMATTR InstName Rbias1
SYMATTR Value {RBIAS}
SYMBOL res -736 -272 R90
WINDOW 0 0 56 VBottom 2
WINDOW 3 32 56 VTop 2
SYMATTR InstName R6
SYMATTR Value {R2}
SYMBOL Comparators\\LTC6752 -624 -176 M180
SYMATTR InstName CMP1
SYMBOL Comparators\\LTC6752 -480 -96 R0
SYMATTR InstName CMP2
SYMBOL res -560 -368 R90
WINDOW 0 0 56 VBottom 2
WINDOW 3 32 56 VTop 2
SYMATTR InstName R7
SYMATTR Value {R3}
SYMBOL voltage -768 32 R0
SYMATTR InstName Vbias1
SYMATTR Value 2.5
SYMBOL ZZZ\\OpAmp\\MCP6001 -960 -320 R0
SYMATTR InstName U3
SYMBOL res -464 -192 R90
WINDOW 0 0 56 VBottom 2
WINDOW 3 32 56 VTop 2
SYMATTR InstName R8
SYMATTR Value {RPULL}
SYMBOL ZZZ\\LOGIC\\DigitalLogic\\NAND_2 272 -208 R0
SYMATTR InstName U4
SYMATTR Value2 Vhigh=5
SYMBOL ZZZ\\LOGIC\\DigitalLogic\\NAND_2 272 192 R0
SYMATTR InstName U5
SYMATTR Value2 Vhigh=5
SYMBOL voltage 3072 1376 R0
WINDOW 123 0 0 Left 0
WINDOW 39 0 0 Left 0
SYMATTR InstName V2
SYMATTR Value SINE(0 0.5 1k)
SYMBOL Digital\\inv 3248 64 R90
WINDOW 3 8 60 Left 2
SYMATTR Value Vhigh=5
SYMATTR InstName A6
SYMBOL cap 3424 -80 R0
SYMATTR InstName C7
SYMATTR Value 10n
SYMBOL cap 3424 256 R0
SYMATTR InstName C8
SYMATTR Value 100n
SYMBOL npn 4224 160 R0
SYMATTR InstName Q1
SYMATTR Value 2N2222
SYMBOL pnp 4224 80 M180
SYMATTR InstName Q2
SYMATTR Value 2N2907
SYMBOL Digital\\and 3360 464 R0
WINDOW 3 16 52 Left 2
SYMATTR Value Vhigh=5
SYMATTR InstName A7
SYMBOL Digital\\inv 3248 576 R90
WINDOW 3 8 60 Left 2
SYMATTR Value Vhigh=5
SYMATTR InstName A8
SYMBOL cap 3424 432 R0
SYMATTR InstName C9
SYMATTR Value 10n
SYMBOL cap 3424 768 R0
SYMATTR InstName C10
SYMATTR Value 100n
SYMBOL Digital\\inv 3840 480 R0
SYMATTR InstName A9
SYMATTR Value2 Vhigh=5 td=200n
SYMBOL npn 4224 672 R0
SYMATTR InstName Q3
SYMATTR Value 2N2222
SYMBOL pnp 4224 592 M180
SYMATTR InstName Q4
SYMATTR Value 2N2907
SYMBOL cap 3472 1280 R90
WINDOW 0 0 32 VBottom 2
WINDOW 3 32 32 VTop 2
SYMATTR InstName C11
SYMATTR Value 1µ
SYMBOL res 3648 1280 R90
WINDOW 0 0 56 VBottom 2
WINDOW 3 32 56 VTop 2
SYMATTR InstName R11
SYMATTR Value 2k
SYMBOL opamp 3728 1248 R0
SYMATTR InstName U6
SYMBOL res 3792 1184 R90
WINDOW 0 0 56 VBottom 2
WINDOW 3 32 56 VTop 2
SYMATTR InstName R12
SYMATTR Value 2k
SYMBOL Comparators\\LTC6752 4144 1120 R0
SYMATTR InstName U7
SYMBOL Comparators\\LTC6752 4144 1424 R0
SYMATTR InstName U8
SYMBOL res 4240 1104 R90
WINDOW 0 0 56 VBottom 2
WINDOW 3 32 56 VTop 2
SYMATTR InstName R13
SYMATTR Value 4.7k
SYMBOL voltage 3648 1312 R0
SYMATTR InstName V5
SYMATTR Value {VCTRL}
SYMBOL voltage 4144 1472 R180
WINDOW 0 24 96 Left 2
WINDOW 3 24 16 Left 2
WINDOW 123 0 0 Left 0
WINDOW 39 0 0 Left 0
SYMATTR InstName V6
SYMATTR Value 5
SYMBOL voltage 4160 1088 R90
WINDOW 0 -32 56 VBottom 2
WINDOW 3 32 56 VTop 2
SYMATTR InstName V7
SYMATTR Value 5
SYMBOL Digital\\and 3360 640 R0
WINDOW 3 16 52 Left 2
SYMATTR Value Vhigh=5
SYMATTR InstName A10
SYMBOL Digital\\and 3360 128 R0
WINDOW 3 16 52 Left 2
SYMATTR Value Vhigh=5
SYMATTR InstName A11
SYMBOL Digital\\and 3360 -48 R0
WINDOW 3 16 52 Left 2
SYMATTR Value Vhigh=5
SYMATTR InstName A12
SYMBOL Digital\\inv 3840 -32 R0
SYMATTR InstName A13
SYMATTR Value2 Vhigh=5
SYMBOL Digital\\inv 4000 -32 R0
SYMATTR InstName A14
SYMATTR Value2 Vhigh=5 Rout=1u
SYMBOL Digital\\inv 4000 144 R0
SYMATTR InstName A15
SYMATTR Value2 Vhigh=5 Rout=1u
SYMBOL Digital\\inv 4000 480 R0
SYMATTR InstName A16
SYMATTR Value2 Vhigh=5
SYMBOL Digital\\inv 4000 656 R0
SYMATTR InstName A17
SYMATTR Value2 Vhigh=5
SYMBOL res 4624 224 R90
WINDOW 0 0 56 VBottom 2
WINDOW 3 32 56 VTop 2
SYMATTR InstName R14
SYMATTR Value {Raudio}
SYMBOL res 4624 512 R90
WINDOW 0 0 56 VBottom 2
WINDOW 3 32 56 VTop 2
SYMATTR InstName R15
SYMATTR Value {Raudio}
SYMBOL ind 4640 320 R0
SYMATTR InstName L2
SYMATTR Value {Laud}
SYMBOL e 4864 304 R0
SYMATTR InstName E1
SYMATTR Value 1
SYMBOL voltage 4272 -16 R270
WINDOW 0 32 56 VTop 2
WINDOW 3 -32 56 VBottom 2
WINDOW 123 0 0 Left 0
WINDOW 39 0 0 Left 0
SYMATTR InstName V8
SYMATTR Value 5
SYMBOL voltage 4272 496 R270
WINDOW 0 32 56 VTop 2
WINDOW 3 -32 56 VBottom 2
WINDOW 123 0 0 Left 0
WINDOW 39 0 0 Left 0
SYMATTR InstName V9
SYMATTR Value 5
SYMBOL res 1440 -1392 R90
WINDOW 0 0 56 VBottom 1
WINDOW 3 32 56 VTop 0
SYMATTR InstName R16
SYMATTR Value {10/x1}
SYMBOL res 1440 -1360 R0
WINDOW 0 36 40 Left 1
WINDOW 3 36 76 Left 0
SYMATTR InstName R17
SYMATTR Value {1/(20*x1)}
SYMBOL res 1632 -1504 R270
WINDOW 0 32 56 VTop 1
WINDOW 3 0 56 VBottom 0
SYMATTR InstName R18
SYMATTR Value {20/x1}
SYMBOL cap 1584 -1600 R90
WINDOW 0 0 32 VBottom 1
WINDOW 3 32 32 VTop 0
SYMATTR InstName C12
SYMATTR Value {C}
SYMBOL cap 1568 -1392 R90
WINDOW 0 0 32 VBottom 1
WINDOW 3 32 32 VTop 0
SYMATTR InstName C13
SYMATTR Value {C}
SYMBOL voltage 608 -960 R0
WINDOW 3 82 38 Invisible 1
WINDOW 39 0 0 Left 0
SYMATTR Value SINE(0 0.45 1k)
SYMATTR InstName V10
SYMATTR Value2 AC 1 0
SYMBOL voltage 608 -1280 R0
WINDOW 3 24 96 Invisible 2
SYMATTR Value 5
SYMATTR InstName V12
SYMBOL res 1440 -832 R90
WINDOW 0 0 56 VBottom 1
WINDOW 3 32 56 VTop 0
SYMATTR InstName R19
SYMATTR Value {10/x2}
SYMBOL res 1440 -800 R0
WINDOW 0 36 40 Left 1
WINDOW 3 36 76 Left 0
SYMATTR InstName R20
SYMATTR Value {1/(20*x2)}
SYMBOL res 1632 -944 R270
WINDOW 0 32 56 VTop 1
WINDOW 3 0 56 VBottom 0
SYMATTR InstName R21
SYMATTR Value {20/x2}
SYMBOL cap 1584 -1040 R90
WINDOW 0 0 32 VBottom 1
WINDOW 3 32 32 VTop 0
SYMATTR InstName C14
SYMATTR Value {C}
SYMBOL cap 1568 -832 R90
WINDOW 0 0 32 VBottom 1
WINDOW 3 32 32 VTop 0
SYMATTR InstName C15
SYMATTR Value {C}
SYMBOL OpAmps\\UniversalOpAmp 1648 -1360 R0
SYMATTR InstName U9
SYMBOL OpAmps\\UniversalOpAmp 1648 -800 R0
SYMATTR InstName U10
SYMBOL diode 3120 -1104 R270
WINDOW 0 32 32 VTop 2
WINDOW 3 0 32 VBottom 2
SYMATTR InstName D2
SYMBOL cap 3216 -1088 R0
SYMATTR InstName C16
SYMATTR Value 100n
SYMBOL res 3344 -1120 R0
SYMATTR InstName R24
SYMATTR Value 16k
SYMBOL res 3344 -976 R0
SYMATTR InstName R25
SYMATTR Value 28k
SYMBOL cap 3488 -960 R0
SYMATTR InstName C17
SYMATTR Value 0.25µ
SYMBOL OpAmps\\UniversalOpAmp2 3040 -1120 R0
SYMATTR InstName U11
SYMBOL OpAmps\\UniversalOpAmp 2592 -1104 R0
SYMATTR InstName U12
SYMBOL cap 2880 -1120 R90
WINDOW 0 0 32 VBottom 2
WINDOW 3 32 32 VTop 2
SYMATTR InstName C18
SYMATTR Value 100n
SYMBOL res 2928 -1072 R0
SYMATTR InstName R26
SYMATTR Value 100k
SYMBOL res 2640 -1296 R90
WINDOW 0 0 56 VBottom 2
WINDOW 3 32 56 VTop 2
SYMATTR InstName R27
SYMATTR Value 10k
SYMBOL res 2352 -1200 R90
WINDOW 0 0 56 VBottom 2
WINDOW 3 32 56 VTop 2
SYMATTR InstName R28
SYMATTR Value 10k
SYMBOL res 2352 -1104 R90
WINDOW 0 0 56 VBottom 2
WINDOW 3 32 56 VTop 2
SYMATTR InstName R29
SYMATTR Value 10k
TEXT -64 384 Left 2 !.param Ca=1n Cb=1n Cn=47e-6 L=100e-6 C1=0.1n R1=125000 R3=100k R2=20k R4=100k Rpull=10k Cbias=10u RBIAS=1k
TEXT 280 -408 Left 2 ;Haricharan B
TEXT 216 -456 Left 4 ;Experiment 3 Prelab
TEXT 288 -352 Left 2 ;EP21B015
TEXT 3840 912 Left 2 !.params Vctrl=2.5
TEXT 2928 -288 Left 5 ;Prelab 5 H bridge driver and integration
TEXT 3112 -376 Left 5 ;Haricharan B EP21B015
TEXT 3768 864 Left 2 !.params Raudio=16 Laud=507.4u
TEXT 4992 360 Left 2 ;Audio Device
TEXT 864 -872 Left 2 !;.ac dec 100 1 1G\n.tran 0 1 0 uic
TEXT 960 -1136 Left 2 !.param C 10n\n.param fo1 1k\n.param fo2 3k\n.param x1 6.38e-5\n.param x2 3*6.28e-5
TEXT 936 -1616 Left 2 ;Haricharan B EP21B015
TEXT 1016 -1576 Left 2 ;Expt 7
TEXT 1272 -2288 Left 7 ;Haricharan B EP21B015\nExperiment-8 Integration
