Version 4
SHEET 1 1332 680
WIRE -640 -416 -1392 -416
WIRE -1168 -320 -1200 -320
WIRE -1040 -320 -1104 -320
WIRE -800 -208 -864 -208
WIRE -640 -208 -640 -416
WIRE -640 -208 -720 -208
WIRE 784 -176 736 -176
WIRE -1104 -144 -1104 -192
WIRE -1392 -128 -1392 -416
WIRE -1328 -128 -1392 -128
WIRE -1200 -128 -1200 -320
WIRE -1200 -128 -1248 -128
WIRE -1136 -128 -1200 -128
WIRE -1040 -112 -1040 -320
WIRE -1040 -112 -1072 -112
WIRE -1008 -112 -1040 -112
WIRE -992 -112 -1008 -112
WIRE -976 -112 -992 -112
WIRE -864 -112 -864 -208
WIRE -864 -112 -896 -112
WIRE -800 -112 -864 -112
WIRE -1136 -96 -1152 -96
WIRE -640 -96 -640 -208
WIRE -640 -96 -736 -96
WIRE -624 -96 -640 -96
WIRE -608 -96 -624 -96
WIRE -800 -80 -816 -80
WIRE 96 -80 -128 -80
WIRE 384 -64 160 -64
WIRE -1728 -48 -1728 -80
WIRE 96 -48 64 -48
WIRE -768 -32 -768 -64
WIRE -704 -32 -768 -32
WIRE -624 -32 -624 -96
WIRE 512 0 512 -32
WIRE 640 0 640 -32
WIRE 880 0 880 -32
WIRE 736 16 736 -176
WIRE 832 16 736 16
WIRE -1776 32 -1808 32
WIRE -1728 32 -1776 32
WIRE 64 64 64 -48
WIRE 64 64 48 64
WIRE 96 64 64 64
WIRE 240 64 160 64
WIRE 384 80 384 -64
WIRE 448 80 384 80
WIRE 736 80 736 16
WIRE 736 80 704 80
WIRE -1040 96 -1040 -112
WIRE -1024 96 -1040 96
WIRE -912 96 -960 96
WIRE -656 96 -912 96
WIRE -464 112 -592 112
WIRE -128 112 -128 -80
WIRE 880 128 880 96
WIRE 1008 128 880 128
WIRE 1136 128 1088 128
WIRE 1200 128 1136 128
WIRE -624 160 -624 144
WIRE 880 160 880 128
WIRE 448 176 384 176
WIRE 736 176 704 176
WIRE -912 192 -912 176
WIRE 64 208 48 208
WIRE 96 208 64 208
WIRE 192 208 160 208
WIRE 272 208 256 208
WIRE 736 240 736 176
WIRE 832 240 736 240
WIRE 880 288 880 256
WIRE 512 304 512 256
WIRE 640 304 640 256
WIRE 64 320 64 208
WIRE 96 320 64 320
WIRE 224 336 160 336
WIRE 384 336 384 176
WIRE 384 336 288 336
WIRE -128 352 -128 176
WIRE 96 352 -128 352
WIRE 736 368 736 240
WIRE 752 368 736 368
FLAG -16 64 0
FLAG -16 208 0
FLAG 512 304 0
FLAG 640 304 0
FLAG 1136 192 0
FLAG 512 -32 Vdd
IOPIN 512 -32 BiDir
FLAG 640 -32 Vdd
IOPIN 640 -32 BiDir
FLAG 880 288 0
FLAG 880 -32 Vdd
IOPIN 880 -32 BiDir
FLAG -1808 32 Vcm
IOPIN -1808 32 In
FLAG -1776 32 Vbias
IOPIN -1776 32 In
FLAG -1728 112 Vdd
IOPIN -1728 112 In
FLAG -128 -80 Vpwm
IOPIN -128 -80 BiDir
FLAG 784 -176 GateP
IOPIN 784 -176 BiDir
FLAG 752 368 GateN
IOPIN 752 368 BiDir
FLAG 272 208 GateP
IOPIN 272 208 BiDir
FLAG 240 64 GateN
IOPIN 240 64 BiDir
FLAG -1728 192 0
FLAG -1728 -80 0
FLAG -1488 224 0
FLAG -1488 144 VCTRL
IOPIN -1488 144 Out
FLAG -1152 -96 VCM
IOPIN -1152 -96 In
FLAG -816 -80 VCM
IOPIN -816 -80 In
FLAG -1104 -80 0
FLAG -768 -128 0
FLAG -624 80 0
FLAG -912 272 0
FLAG -1104 -192 VDD
IOPIN -1104 -192 In
FLAG -768 -32 VDD
IOPIN -768 -32 In
FLAG -624 160 VDD
IOPIN -624 160 In
FLAG -608 -96 VSQR
IOPIN -608 -96 Out
FLAG -464 112 VPWM
IOPIN -464 112 Out
FLAG -992 -112 Vramp
FLAG -656 128 VCTRL
IOPIN -656 128 In
FLAG -1008 -112 VRAMP
IOPIN -1008 -112 Out
SYMBOL cap 48 48 R90
WINDOW 0 0 32 VBottom 2
WINDOW 3 32 32 VTop 2
SYMATTR InstName C1
SYMATTR Value {Ca}
SYMBOL cap 48 192 R90
WINDOW 0 0 32 VBottom 2
WINDOW 3 32 32 VTop 2
SYMATTR InstName C2
SYMATTR Value {Cb}
SYMBOL PowerProducts\\LTC1693-1 576 128 R0
SYMATTR InstName U1
SYMBOL ind 992 144 R270
WINDOW 0 32 56 VTop 2
WINDOW 3 5 56 VBottom 2
SYMATTR InstName L1
SYMATTR Value {L}
SYMBOL cap 1120 128 R0
SYMATTR InstName C3
SYMATTR Value {Cn}
SYMBOL nmos 832 160 R0
SYMATTR InstName M1
SYMATTR Value Si7336ADP
SYMBOL pmos 832 96 M180
SYMATTR InstName M2
SYMATTR Value AO6407
SYMBOL Digital\\inv 160 272 R180
WINDOW 0 8 32 Invisible 2
SYMATTR InstName A2
SYMATTR Value VHigh=5
SYMBOL Digital\\inv 256 272 R180
WINDOW 0 8 32 Invisible 2
SYMATTR InstName A3
SYMATTR Value VHigh=5
SYMBOL Digital\\inv 160 128 R180
WINDOW 0 8 32 Invisible 2
SYMATTR InstName A4
SYMATTR Value VHigh=5
SYMBOL Digital\\inv 224 272 R0
WINDOW 0 8 32 Invisible 2
SYMATTR InstName A7
SYMATTR Value VHigh=5
SYMBOL Digital\\inv -64 112 R90
WINDOW 0 8 32 Invisible 2
WINDOW 3 60 51 VRight 2
SYMATTR InstName A8
SYMATTR Value VHigh=5
SYMBOL voltage -1728 96 R0
SYMATTR InstName V1
SYMATTR Value 5
SYMBOL res -1744 16 R0
SYMATTR InstName R1
SYMATTR Value 1k
SYMBOL res -1744 -64 R0
SYMATTR InstName R2
SYMATTR Value 1k
SYMBOL voltage -1488 128 R0
WINDOW 123 0 0 Left 0
WINDOW 39 0 0 Left 0
SYMATTR InstName V2
SYMATTR Value 2.5
SYMBOL res -1232 -144 R90
WINDOW 0 0 56 VBottom 2
WINDOW 3 32 56 VTop 2
SYMATTR InstName R7
SYMATTR Value {R1}
SYMBOL cap -1104 -336 R90
WINDOW 0 0 32 VBottom 2
WINDOW 3 32 32 VTop 2
SYMATTR InstName C5
SYMATTR Value {C1}
SYMBOL cap -960 80 R90
WINDOW 0 0 32 VBottom 2
WINDOW 3 32 32 VTop 2
SYMATTR InstName C6
SYMATTR Value {CBIAS}
SYMBOL res -928 80 R0
SYMATTR InstName Rbias1
SYMATTR Value {RBIAS}
SYMBOL res -880 -128 R90
WINDOW 0 0 56 VBottom 2
WINDOW 3 32 56 VTop 2
SYMATTR InstName R8
SYMATTR Value {R2}
SYMBOL Comparators\\LTC6752 -768 -32 M180
SYMATTR InstName CMP1
SYMBOL Comparators\\LTC6752 -624 176 M180
SYMATTR InstName CMP2
SYMBOL res -704 -224 R90
WINDOW 0 0 56 VBottom 2
WINDOW 3 32 56 VTop 2
SYMATTR InstName R11
SYMATTR Value {R3}
SYMBOL voltage -912 176 R0
SYMATTR InstName Vbias1
SYMATTR Value 2.5
SYMBOL ZZZ\\OpAmp\\MCP6001 -1104 -176 R0
SYMATTR InstName U5
SYMBOL res -608 -48 R90
WINDOW 0 0 56 VBottom 2
WINDOW 3 32 56 VTop 2
SYMATTR InstName R12
SYMATTR Value {RPULL}
SYMBOL ZZZ\\LOGIC\\DigitalLogic\\NAND_2 128 -64 R0
SYMATTR InstName U2
SYMATTR Value2 Vhigh=5
SYMBOL ZZZ\\LOGIC\\DigitalLogic\\NAND_2 128 336 R0
SYMATTR InstName U3
SYMATTR Value2 Vhigh=5
TEXT -208 528 Left 2 !.param Ca=1n Cb=1n Cn=47e-6 L=100e-6 C1=0.1n R1=125000 R3=100k R2=20k R4=100k Rpull=10k Cbias=10u RBIAS=1k
TEXT 120 576 Left 2 !.tran 10m uic
TEXT 136 -264 Left 2 ;Haricharan B
TEXT 72 -312 Left 4 ;Experiment 2 Prelab
TEXT 144 -208 Left 2 ;EP21B015
