Version 4
SHEET 1 3332 1308
WIRE 2624 224 2560 224
WIRE 2864 224 2688 224
WIRE 2752 288 2672 288
WIRE 2864 288 2864 224
WIRE 2864 288 2832 288
WIRE 1712 384 1712 368
WIRE 1888 384 1888 368
WIRE 2752 416 2752 400
WIRE 2448 432 2416 432
WIRE 2560 432 2560 224
WIRE 2560 432 2528 432
WIRE 2608 432 2560 432
WIRE 2672 432 2672 288
WIRE 2720 432 2672 432
WIRE 2864 448 2864 288
WIRE 2864 448 2784 448
WIRE 2992 448 2864 448
WIRE 2560 464 2560 432
WIRE 2720 464 2704 464
WIRE 1712 480 1712 464
WIRE 1888 480 1888 464
WIRE 1952 480 1888 480
WIRE 1888 496 1888 480
WIRE 2704 496 2704 464
WIRE 1712 544 1712 528
WIRE 2560 560 2560 544
WIRE 2752 560 2752 480
WIRE 1888 592 1888 576
WIRE 1712 640 1712 624
WIRE 2624 784 2560 784
WIRE 2864 784 2688 784
WIRE 2752 848 2672 848
WIRE 2864 848 2864 784
WIRE 2864 848 2832 848
WIRE 1712 864 1712 848
WIRE 1712 960 1712 944
WIRE 2752 976 2752 960
WIRE 2448 992 2416 992
WIRE 2560 992 2560 784
WIRE 2560 992 2528 992
WIRE 2608 992 2560 992
WIRE 2672 992 2672 848
WIRE 2720 992 2672 992
WIRE 2864 1008 2864 848
WIRE 2864 1008 2784 1008
WIRE 3008 1008 2864 1008
WIRE 2560 1024 2560 992
WIRE 2720 1024 2704 1024
WIRE 2704 1056 2704 1024
WIRE 2560 1120 2560 1104
WIRE 2752 1120 2752 1040
FLAG 2560 560 0
FLAG 2752 560 VSS
IOPIN 2752 560 In
FLAG 2752 400 VDD
IOPIN 2752 400 In
FLAG 2416 432 Vin_audio
IOPIN 2416 432 In
FLAG 1712 848 Vin_audio
IOPIN 1712 848 Out
FLAG 1712 960 0
FLAG 1712 480 0
FLAG 1712 368 VDD
IOPIN 1712 368 Out
FLAG 1712 528 0
FLAG 1712 640 VSS
IOPIN 1712 640 Out
FLAG 2560 1120 0
FLAG 2752 1120 VSS
IOPIN 2752 1120 In
FLAG 2752 960 VDD
IOPIN 2752 960 In
FLAG 2416 992 Vin_audio
IOPIN 2416 992 In
FLAG 1888 592 0
FLAG 1888 368 VDD
IOPIN 1888 368 In
FLAG 1952 480 VCM
IOPIN 1952 480 Out
FLAG 2704 496 VCM
IOPIN 2704 496 In
FLAG 2704 1056 VCM
IOPIN 2704 1056 In
FLAG 3008 1008 VBPF2
IOPIN 3008 1008 Out
FLAG 2992 448 VBPF1
IOPIN 2992 448 Out
SYMBOL res 2544 416 R90
WINDOW 0 0 56 VBottom 1
WINDOW 3 32 56 VTop 0
SYMATTR InstName R1
SYMATTR Value {10/x1}
SYMBOL res 2544 448 R0
WINDOW 0 36 40 Left 1
WINDOW 3 36 76 Left 0
SYMATTR InstName R2
SYMATTR Value {1/(20*x1)}
SYMBOL res 2736 304 R270
WINDOW 0 32 56 VTop 1
WINDOW 3 0 56 VBottom 0
SYMATTR InstName R3
SYMATTR Value {20/x1}
SYMBOL cap 2688 208 R90
WINDOW 0 0 32 VBottom 1
WINDOW 3 32 32 VTop 0
SYMATTR InstName C1
SYMATTR Value {C}
SYMBOL cap 2672 416 R90
WINDOW 0 0 32 VBottom 1
WINDOW 3 32 32 VTop 0
SYMATTR InstName C2
SYMATTR Value {C}
SYMBOL voltage 1712 848 R0
WINDOW 3 82 38 Invisible 1
WINDOW 39 0 0 Left 0
SYMATTR Value SINE(0 0.45 3.3k)
SYMATTR InstName V1
SYMATTR Value2 AC 1 0
SYMBOL voltage 1712 368 R0
WINDOW 3 24 96 Invisible 2
SYMATTR Value 5
SYMATTR InstName V2
SYMBOL voltage 1712 528 R0
WINDOW 3 24 96 Invisible 2
SYMATTR Value 5
SYMATTR InstName V3
SYMBOL res 2544 976 R90
WINDOW 0 0 56 VBottom 1
WINDOW 3 32 56 VTop 0
SYMATTR InstName R4
SYMATTR Value {10/x2}
SYMBOL res 2544 1008 R0
WINDOW 0 36 40 Left 1
WINDOW 3 36 76 Left 0
SYMATTR InstName R5
SYMATTR Value {1/(20*x2)}
SYMBOL res 2736 864 R270
WINDOW 0 32 56 VTop 1
WINDOW 3 0 56 VBottom 0
SYMATTR InstName R6
SYMATTR Value {20/x2}
SYMBOL cap 2688 768 R90
WINDOW 0 0 32 VBottom 1
WINDOW 3 32 32 VTop 0
SYMATTR InstName C3
SYMATTR Value {C}
SYMBOL cap 2672 976 R90
WINDOW 0 0 32 VBottom 1
WINDOW 3 32 32 VTop 0
SYMATTR InstName C4
SYMATTR Value {C}
SYMBOL res 1872 368 R0
WINDOW 0 36 40 Invisible 2
WINDOW 3 36 76 Left 0
SYMATTR InstName R7
SYMATTR Value 10
SYMBOL res 1872 480 R0
WINDOW 0 36 40 Invisible 2
WINDOW 3 36 76 Left 0
SYMATTR InstName R8
SYMATTR Value 10
SYMBOL OpAmps\\UniversalOpAmp 2752 448 R0
SYMATTR InstName U1
SYMBOL OpAmps\\UniversalOpAmp 2752 1008 R0
SYMATTR InstName U2
TEXT 1968 936 Left 2 !;.ac dec 100 1 1G\n.tran 0 1 uic
TEXT 2064 672 Left 2 !.param C 10n\n.param fo1 1k\n.param fo2 3k\n.param x1 6.38e-5\n.param x2 3*6.28e-5
TEXT 2040 192 Left 2 ;Haricharan B EP21B015
TEXT 2120 232 Left 2 ;Expt 6
