Version 4
SHEET 1 1420 1152
WIRE -800 -1408 -1552 -1408
WIRE -1328 -1312 -1360 -1312
WIRE -1200 -1312 -1264 -1312
WIRE -960 -1200 -1024 -1200
WIRE -800 -1200 -800 -1408
WIRE -800 -1200 -880 -1200
WIRE 624 -1168 576 -1168
WIRE -1264 -1136 -1264 -1184
WIRE -1552 -1120 -1552 -1408
WIRE -1488 -1120 -1552 -1120
WIRE -1360 -1120 -1360 -1312
WIRE -1360 -1120 -1408 -1120
WIRE -1296 -1120 -1360 -1120
WIRE -1200 -1104 -1200 -1312
WIRE -1200 -1104 -1232 -1104
WIRE -1168 -1104 -1200 -1104
WIRE -1152 -1104 -1168 -1104
WIRE -1136 -1104 -1152 -1104
WIRE -1024 -1104 -1024 -1200
WIRE -1024 -1104 -1056 -1104
WIRE -960 -1104 -1024 -1104
WIRE -1296 -1088 -1312 -1088
WIRE -800 -1088 -800 -1200
WIRE -800 -1088 -896 -1088
WIRE -784 -1088 -800 -1088
WIRE -768 -1088 -784 -1088
WIRE -960 -1072 -976 -1072
WIRE -64 -1072 -288 -1072
WIRE 224 -1056 0 -1056
WIRE -1888 -1040 -1888 -1072
WIRE -64 -1040 -96 -1040
WIRE -928 -1024 -928 -1056
WIRE -864 -1024 -928 -1024
WIRE -784 -1024 -784 -1088
WIRE 352 -992 352 -1024
WIRE 480 -992 480 -1024
WIRE 720 -992 720 -1024
WIRE 576 -976 576 -1168
WIRE 672 -976 576 -976
WIRE -1936 -960 -1968 -960
WIRE -1888 -960 -1936 -960
WIRE -96 -928 -96 -1040
WIRE -96 -928 -112 -928
WIRE -64 -928 -96 -928
WIRE 80 -928 0 -928
WIRE 224 -912 224 -1056
WIRE 288 -912 224 -912
WIRE 576 -912 576 -976
WIRE 576 -912 544 -912
WIRE -1200 -896 -1200 -1104
WIRE -1184 -896 -1200 -896
WIRE -1072 -896 -1120 -896
WIRE -816 -896 -1072 -896
WIRE -624 -880 -752 -880
WIRE -288 -880 -288 -1072
WIRE -816 -864 -880 -864
WIRE 720 -864 720 -896
WIRE 848 -864 720 -864
WIRE 976 -864 928 -864
WIRE 1168 -864 976 -864
WIRE -784 -832 -784 -848
WIRE 720 -832 720 -864
WIRE 288 -816 224 -816
WIRE 576 -816 544 -816
WIRE -1072 -800 -1072 -816
WIRE -96 -784 -112 -784
WIRE -64 -784 -96 -784
WIRE 32 -784 0 -784
WIRE 112 -784 96 -784
WIRE 576 -752 576 -816
WIRE 672 -752 576 -752
WIRE 720 -704 720 -736
WIRE 352 -688 352 -736
WIRE 480 -688 480 -736
WIRE -96 -672 -96 -784
WIRE -64 -672 -96 -672
WIRE 64 -656 0 -656
WIRE 224 -656 224 -816
WIRE 224 -656 128 -656
WIRE -288 -640 -288 -816
WIRE -64 -640 -288 -640
WIRE 576 -624 576 -752
WIRE 592 -624 576 -624
WIRE 272 -176 160 -176
WIRE 448 -176 336 -176
WIRE 1008 -176 1008 -320
WIRE 448 -80 448 -176
WIRE 448 -80 320 -80
WIRE 480 -80 448 -80
WIRE -880 -64 -880 -864
WIRE 160 -64 160 -176
WIRE 160 -64 -880 -64
WIRE 256 -64 160 -64
WIRE 480 -64 480 -80
WIRE 496 -64 480 -64
WIRE 1008 -64 1008 -112
WIRE 1008 -64 576 -64
WIRE 384 -48 320 -48
WIRE 384 0 384 -48
WIRE 1008 0 1008 -64
WIRE 1008 208 1008 80
FLAG 1008 208 0
FLAG 1008 -320 Vout
IOPIN 1008 -320 In
FLAG 384 80 0
FLAG 288 -96 Vdd
IOPIN 288 -96 In
FLAG 288 -32 0
FLAG -176 -928 0
FLAG -176 -784 0
FLAG 352 -688 0
FLAG 480 -688 0
FLAG 976 -800 0
FLAG 352 -1024 Vdd
IOPIN 352 -1024 BiDir
FLAG 480 -1024 Vdd
IOPIN 480 -1024 BiDir
FLAG 720 -704 0
FLAG 720 -1024 Vdd
IOPIN 720 -1024 BiDir
FLAG -1968 -960 Vcm
IOPIN -1968 -960 In
FLAG -1936 -960 Vbias
IOPIN -1936 -960 In
FLAG -1888 -880 Vdd
IOPIN -1888 -880 In
FLAG -288 -1072 Vpwm
IOPIN -288 -1072 BiDir
FLAG 624 -1168 GateP
IOPIN 624 -1168 BiDir
FLAG 592 -624 GateN
IOPIN 592 -624 BiDir
FLAG 112 -784 GateP
IOPIN 112 -784 BiDir
FLAG 80 -928 GateN
IOPIN 80 -928 BiDir
FLAG -1888 -800 0
FLAG -1888 -1072 0
FLAG -1312 -1088 VCM
IOPIN -1312 -1088 In
FLAG -976 -1072 VCM
IOPIN -976 -1072 In
FLAG -1264 -1072 0
FLAG -928 -1120 0
FLAG -1072 -720 0
FLAG -1264 -1184 VDD
IOPIN -1264 -1184 In
FLAG -928 -1024 VDD
IOPIN -928 -1024 In
FLAG -784 -912 VDD
IOPIN -784 -912 In
FLAG -768 -1088 VSQR
IOPIN -768 -1088 Out
FLAG -624 -880 VPWM
IOPIN -624 -880 Out
FLAG -1152 -1104 Vramp
FLAG -1168 -1104 VRAMP
IOPIN -1168 -1104 Out
FLAG 1168 -864 Vout
IOPIN 1168 -864 Out
FLAG -784 -832 0
SYMBOL res 992 -16 R0
SYMATTR InstName R1
SYMATTR Value 5
SYMBOL res 592 -80 R90
WINDOW 0 0 56 VBottom 2
WINDOW 3 32 56 VTop 2
SYMATTR InstName R2
SYMATTR Value 50k
SYMBOL cap 336 -192 R90
WINDOW 0 0 32 VBottom 2
WINDOW 3 32 32 VTop 2
SYMATTR InstName C1
SYMATTR Value 25n
SYMBOL OpAmps\\UniversalOpAmp2 288 -64 M0
SYMATTR InstName U1
SYMBOL voltage 384 -16 R0
WINDOW 123 0 0 Left 0
WINDOW 39 0 0 Left 0
SYMATTR InstName Vref
SYMATTR Value 250m
SYMBOL Contrib\\Wurth\\Optoelectronics\\SignalLED\\Mono-color\\WL-TMRW 1008 -128 R0
SYMATTR InstName D1
SYMBOL cap -112 -944 R90
WINDOW 0 0 32 VBottom 2
WINDOW 3 32 32 VTop 2
SYMATTR InstName C2
SYMATTR Value {Ca}
SYMBOL cap -112 -800 R90
WINDOW 0 0 32 VBottom 2
WINDOW 3 32 32 VTop 2
SYMATTR InstName C3
SYMATTR Value {Cb}
SYMBOL PowerProducts\\LTC1693-1 416 -864 R0
SYMATTR InstName U2
SYMBOL ind 832 -848 R270
WINDOW 0 32 56 VTop 2
WINDOW 3 5 56 VBottom 2
SYMATTR InstName L1
SYMATTR Value {L}
SYMBOL cap 960 -864 R0
SYMATTR InstName C4
SYMATTR Value {Cn}
SYMBOL nmos 672 -832 R0
SYMATTR InstName M1
SYMATTR Value Si7336ADP
SYMBOL pmos 672 -896 M180
SYMATTR InstName M2
SYMATTR Value AO6407
SYMBOL Digital\\inv 0 -720 R180
WINDOW 0 8 32 Invisible 2
SYMATTR InstName A1
SYMATTR Value VHigh=5
SYMBOL Digital\\inv 96 -720 R180
WINDOW 0 8 32 Invisible 2
SYMATTR InstName A2
SYMATTR Value VHigh=5
SYMBOL Digital\\inv 0 -864 R180
WINDOW 0 8 32 Invisible 2
SYMATTR InstName A3
SYMATTR Value VHigh=5
SYMBOL Digital\\inv 64 -720 R0
WINDOW 0 8 32 Invisible 2
SYMATTR InstName A4
SYMATTR Value VHigh=5
SYMBOL Digital\\inv -224 -880 R90
WINDOW 0 8 32 Invisible 2
WINDOW 3 60 51 VRight 2
SYMATTR InstName A5
SYMATTR Value VHigh=5
SYMBOL voltage -1888 -896 R0
SYMATTR InstName V2
SYMATTR Value 5
SYMBOL res -1904 -976 R0
SYMATTR InstName R3
SYMATTR Value 1k
SYMBOL res -1904 -1056 R0
SYMATTR InstName R4
SYMATTR Value 1k
SYMBOL res -1392 -1136 R90
WINDOW 0 0 56 VBottom 2
WINDOW 3 32 56 VTop 2
SYMATTR InstName R5
SYMATTR Value {R1}
SYMBOL cap -1264 -1328 R90
WINDOW 0 0 32 VBottom 2
WINDOW 3 32 32 VTop 2
SYMATTR InstName C5
SYMATTR Value {C1}
SYMBOL cap -1120 -912 R90
WINDOW 0 0 32 VBottom 2
WINDOW 3 32 32 VTop 2
SYMATTR InstName C6
SYMATTR Value {CBIAS}
SYMBOL res -1088 -912 R0
SYMATTR InstName Rbias1
SYMATTR Value {RBIAS}
SYMBOL res -1040 -1120 R90
WINDOW 0 0 56 VBottom 2
WINDOW 3 32 56 VTop 2
SYMATTR InstName R6
SYMATTR Value {R2}
SYMBOL Comparators\\LTC6752 -928 -1024 M180
SYMATTR InstName CMP1
SYMBOL Comparators\\LTC6752 -784 -944 R0
SYMATTR InstName CMP2
SYMBOL res -864 -1216 R90
WINDOW 0 0 56 VBottom 2
WINDOW 3 32 56 VTop 2
SYMATTR InstName R7
SYMATTR Value {R3}
SYMBOL voltage -1072 -816 R0
SYMATTR InstName Vbias1
SYMATTR Value 2.5
SYMBOL ZZZ\\OpAmp\\MCP6001 -1264 -1168 R0
SYMATTR InstName U3
SYMBOL res -768 -1040 R90
WINDOW 0 0 56 VBottom 2
WINDOW 3 32 56 VTop 2
SYMATTR InstName R8
SYMATTR Value {RPULL}
SYMBOL ZZZ\\LOGIC\\DigitalLogic\\NAND_2 -32 -1056 R0
SYMATTR InstName U4
SYMATTR Value2 Vhigh=5
SYMBOL ZZZ\\LOGIC\\DigitalLogic\\NAND_2 -32 -656 R0
SYMATTR InstName U5
SYMATTR Value2 Vhigh=5
TEXT -368 -464 Left 2 !.param Ca=1n Cb=1n Cn=47e-6 L=100e-6 C1=0.1n R1=125000 R3=100k R2=20k R4=100k Rpull=10k Cbias=10u RBIAS=1k
TEXT -40 -416 Left 2 !.tran 0 20m 5m uic
TEXT -24 -1256 Left 2 ;Haricharan B
TEXT -88 -1304 Left 4 ;Experiment 3 Prelab
TEXT -16 -1200 Left 2 ;EP21B015
